
##########################################################################
#               Crystallographic Information Format file
#               Produced by PyCifRW module
#
#  This is a CIF file.  CIF has been adopted by the International
#  Union of Crystallography as the standard for data archiving and
#  transmission.
#
#  For information on this file format, follow the CIF links at
#  http://www.iucr.org
##########################################################################

data_0

loop_
  _atom_site_label
  _atom_site_fract_x
  _atom_site_fract_y
  _atom_site_fract_z
  _atom_site_type_symbol
         Na1       0.11111318141447266           0.333339544243418   0.750038997623439  Na       
         Na2       0.22215993018422328           0.16657660847043917           0.25004358557913764          Na       
         Mn1       0.0       0.0       0.0       Mn        
         Ni1       0.0       0.0       0.4999954120443013  Ni        
         O1        0.22215993018422328           0.16657660847043917           0.9124618052688083 O        
         O2        0.11111318141447266           0.333339544243418   0.41245721731310964          O        
         O3        0.11111318141447266           0.333339544243418   0.08753819473119168          O        
         O4        0.22215993018422328           0.16657660847043917           0.5875336067754929 O        
         Na3       0.7777583329883017  0.333339544243418   0.750038997623439   Na       
         Na4       0.8889126572222404  0.16657660847043917           0.25004358557913764          Na       
         Ti1       0.666645151573829   0.0       0.0       Ti        
         Ni2       0.666645151573829   0.0       0.4999954120443013  Ni        
         O5        0.7777583329883017  0.333339544243418   0.08753819473119168           O        
         O6        0.8889126572222404  0.16657660847043917           0.5875336067754929 O        
         Mn2       0.33337636351900857           0.0       0.0       Mn        
         Ni3       0.33337636351900857           0.0       0.4999954120443013  Ni       
         O7        0.5555362937032318  0.16657660847043917           0.9124618052688083 O        
         O8        0.44448954493348125           0.333339544243418   0.41245721731310964          O        
         O9        0.44448954493348125           0.333339544243418   0.08753819473119168          O        
         O10       0.5555362937032318  0.16657660847043917           0.5875336067754929 O        
         O11       0.8889126572222404  0.16657660847043917           0.9124618052688083 O        
         O12       0.7777583329883017  0.333339544243418   0.41245721731310964           O        
         Na5       0.44448954493348125           0.333339544243418   0.750038997623439  Na       
         Na6       0.5555362937032318  0.16657660847043917           0.25004358557913764          Na       
         Na7       0.7777626565321771  0.8332556969572752  0.750038997623439   Na       
         Na8       0.8888715144027742  0.666679088486836   0.25004358557913764           Na       
         O13       0.7777626565321771  0.8332556969572752  0.08753819473119168           O        
         O14       0.8888715144027742  0.666679088486836   0.5875336067754929  O        
         Na9       0.11111750495834816           0.8332556969572752  0.750038997623439  Na       
         O15       0.11111750495834816           0.8332556969572752  0.08753819473119168          O        
         O16       0.5556027263479539  0.666679088486836   0.9124618052688083  O        
         O17       0.4443862930131686  0.8332556969572752  0.41245721731310964           O        
         O18       0.4443862930131686  0.8332556969572752  0.08753819473119168           O        
         O19       0.5556027263479539  0.666679088486836   0.5875336067754929  O        
         O20       0.8888715144027742  0.666679088486836   0.9124618052688083  O        
         O21       0.7777626565321771  0.8332556969572752  0.41245721731310964           O        
         O22       0.2222263628289453  0.666679088486836   0.9124618052688083  O        
         O23       0.11111750495834816           0.8332556969572752  0.41245721731310964          O        
         O24       0.2222263628289453  0.666679088486836   0.5875336067754929  O        
         Ti2       0.6666494751177044  0.49991615271385714           0.0       Ti       
         Ni4       0.6666494751177044  0.49991615271385714           0.4999954120443013 Ni       
         Ti3       4.323543875482368e-06         0.49991615271385714           0.0      Ti       
         Mn3       4.323543875482368e-06         0.49991615271385714           0.4999954120443013 Mn       
         Mn4       0.3332731115986959  0.49991615271385714           0.0       Mn       
         Ti4       0.3332731115986959  0.49991615271385714           0.4999954120443013 Ti       
         Na10      0.2222263628289453  0.666679088486836   0.25004358557913764           Na       
         Na11      0.4443862930131686  0.8332556969572752  0.750038997623439   Na       
         Na12      0.5556027263479539  0.666679088486836   0.25004358557913764           Na
_cell_angle_alpha                       90.0
_cell_angle_beta                        90.0
_cell_angle_gamma                       120.0001508506647
_cell_length_a                          9.2958
_cell_length_b                          6.197171739592183
_cell_length_c                          10.8981
loop_
  _symmetry_equiv_pos_as_xyz
         'x, y, z' 
_symmetry_int_tables_number             1
_symmetry_space_group_name_H-M          'P 1'